Circuit: * F:\source\gect-pump-sensor\GECT ECE Pump Pressure Sensor Module\plot\RC sim.asc

V1: Removing PWL point (0.3,2.5749)
V1: Removing PWL point (1.9,2.5749)
V1: Removing PWL point (2.5,2.57813)
V1: Removing PWL point (3.7,2.57813)
V1: Removing PWL point (4,2.5749)
V1: Removing PWL point (6.2,2.57813)
V1: Removing PWL point (6.7,2.57813)
V1: Removing PWL point (7.8,2.57813)
V1: Removing PWL point (8.2,2.57813)
V1: Removing PWL point (9,2.57813)
V1: Removing PWL point (9.9,2.57813)
V1: Removing PWL point (10.3,2.5749)
V1: Removing PWL point (10.9,2.57813)
V1: Removing PWL point (11.5,2.5749)
V1: Removing PWL point (12,2.5749)
V1: Removing PWL point (12.3,2.57813)
V1: Removing PWL point (12.8,2.5749)
V1: Removing PWL point (13.2,2.57813)
V1: Removing PWL point (14.7,2.5749)
V1: Removing PWL point (15,2.57813)
V1: Removing PWL point (15.3,2.5749)
V1: Removing PWL point (15.6,2.57813)
V1: Removing PWL point (16.9,2.5749)
V1: Removing PWL point (17.2,2.57813)
V1: Removing PWL point (17.9,2.5749)
V1: Removing PWL point (18.9,2.5749)
V1: Removing PWL point (19.5,2.5749)
V1: Removing PWL point (19.9,2.5749)
V1: Removing PWL point (20.4,2.5749)
V1: Removing PWL point (21.3,2.5749)
V1: Removing PWL point (22.6,2.57813)
V1: Removing PWL point (23,2.57813)
V1: Removing PWL point (23.5,2.57813)
V1: Removing PWL point (24.8,2.57813)
V1: Removing PWL point (25.7,2.5749)
V1: Removing PWL point (26.2,2.5749)
V1: Removing PWL point (28.6,2.57813)
V1: Removing PWL point (29.2,2.57813)
V1: Removing PWL point (30.2,2.57813)
V1: Removing PWL point (31.2,2.57813)
V1: Removing PWL point (32,2.57813)
V1: Removing PWL point (32.6,2.57813)
V1: Removing PWL point (33.8,2.57813)
V1: Removing PWL point (35.1,2.57813)
V1: Removing PWL point (35.5,2.57813)
V1: Removing PWL point (36.1,2.57813)
V1: Removing PWL point (64.8,2.97773)
V1: Removing PWL point (66,2.97773)
V1: Removing PWL point (66.6,2.98096)
V1: Removing PWL point (69.5,2.98096)
V1: Removing PWL point (87.3,2.98096)
V1: Removing PWL point (88.1,2.98096)
V1: Removing PWL point (89,2.98096)
V1: Removing PWL point (89.6,2.98096)
V1: Removing PWL point (90.1,2.97773)
V1: Removing PWL point (93,2.98096)
V1: Removing PWL point (94.3,2.98096)
V1: Removing PWL point (100.6,2.97129)
V1: Removing PWL point (101.8,2.97773)
V1: Removing PWL point (102.2,2.98096)
V1: Removing PWL point (102.6,2.98096)
V1: Removing PWL point (103.3,2.98096)
V1: Removing PWL point (104.1,2.97773)
V1: Removing PWL point (105.4,2.98096)
V1: Removing PWL point (105.9,2.98096)
V1: Removing PWL point (106.4,2.97773)
V1: Removing PWL point (107.3,2.98096)
V1: Removing PWL point (107.6,2.97773)
V1: Removing PWL point (108.4,2.98096)
V1: Removing PWL point (109.4,2.98096)
V1: Removing PWL point (110.1,2.97773)
V1: Removing PWL point (110.6,2.98096)
V1: Removing PWL point (111.7,2.98096)
V1: Removing PWL point (113.1,2.98096)
V1: Removing PWL point (113.5,2.98096)
V1: Removing PWL point (115.2,2.97773)
V1: Removing PWL point (115.6,2.98096)
V1: Removing PWL point (115.9,2.97773)
V1: Removing PWL point (116.6,2.97773)
V1: Removing PWL point (118.1,2.98096)
V1: Removing PWL point (119,2.97773)
V1: Removing PWL point (119.6,2.98096)
V1: Removing PWL point (119.9,2.97773)
V1: Removing PWL point (121.9,2.98096)
V1: Removing PWL point (126.6,2.97773)
V1: Removing PWL point (127.1,2.97773)
V1: Removing PWL point (127.4,2.98418)
V1: Removing PWL point (129.7,2.98096)
V1: Removing PWL point (130.5,2.97773)
V1: Removing PWL point (131.2,2.98096)
V1: Removing PWL point (132.1,2.98096)
V1: Removing PWL point (133,2.98096)
V1: Removing PWL point (133.9,2.97773)
V1: Removing PWL point (134.5,2.98096)
V1: Removing PWL point (135.7,2.98096)
V1: Removing PWL point (148.5,2.97129)
V1: Removing PWL point (149.9,2.97773)
V1: Removing PWL point (156,2.97129)
V1: Removing PWL point (156.3,2.97773)
V1: Removing PWL point (157.5,2.97773)
V1: Removing PWL point (157.8,2.98096)
V1: Removing PWL point (158.7,2.97773)
V1: Removing PWL point (159,2.98096)
V1: Removing PWL point (160,2.98096)
V1: Removing PWL point (179.2,2.98096)
V1: Removing PWL point (179.9,2.97773)
V1: Removing PWL point (180.6,2.97773)
V1: Removing PWL point (181.4,2.97773)
V1: Removing PWL point (182.3,2.97129)
V1: Removing PWL point (184,2.98096)
V1: Removing PWL point (184.5,2.98096)
V1: Removing PWL point (185,2.97773)
V1: Removing PWL point (185.7,2.98096)
V1: Removing PWL point (186.5,2.98096)
V1: Removing PWL point (187.3,2.97773)
V1: Removing PWL point (187.6,2.98096)
V1: Removing PWL point (188.3,2.97773)
V1: Removing PWL point (189.7,2.97773)
V1: Removing PWL point (190,2.98096)
V1: Removing PWL point (190.8,2.97773)
V1: Removing PWL point (192,2.98096)
V1: Removing PWL point (192.4,2.98096)
V1: Removing PWL point (193.6,2.98096)
V1: Removing PWL point (194,2.98096)
V1: Removing PWL point (194.9,2.97773)
V1: Removing PWL point (197.5,2.97773)
V1: Removing PWL point (197.8,2.98096)
V1: Removing PWL point (198.5,2.97773)
V1: Removing PWL point (199.5,2.98096)
V1: Removing PWL point (199.8,2.97773)
V1: Removing PWL point (200.2,2.98096)
V1: Removing PWL point (201,2.98096)
V1: Removing PWL point (201.8,2.98096)
V1: Removing PWL point (203.1,2.98096)
V1: Removing PWL point (204,2.97773)
V1: Removing PWL point (204.3,2.98096)
V1: Removing PWL point (204.7,2.98096)
V1: Removing PWL point (205.5,2.98096)
V1: Removing PWL point (206.1,2.97773)
V1: Removing PWL point (206.7,2.98096)
V1: Removing PWL point (208.8,2.98096)
V1: Removing PWL point (209.9,2.98096)
V1: Removing PWL point (210.5,2.98096)
V1: Removing PWL point (214.7,2.98096)
V1: Removing PWL point (223.1,2.98418)
V1: Removing PWL point (223.5,2.97773)
V1: Removing PWL point (223.9,2.96484)
V1: Removing PWL point (224.4,2.97773)
V1: Removing PWL point (233.9,2.80693)
V1: Removing PWL point (247.9,2.91973)
V1: Removing PWL point (248.7,2.91973)
V1: Removing PWL point (250,2.91973)
V1: Removing PWL point (250.7,2.91973)
V1: Removing PWL point (251.5,2.91973)
V1: Removing PWL point (251.8,2.92295)
V1: Removing PWL point (253,2.91973)
V1: Removing PWL point (253.4,2.91973)
V1: Removing PWL point (254,2.91973)
V1: Removing PWL point (255.1,2.91973)
V1: Removing PWL point (256,2.91973)
V1: Removing PWL point (257.6,2.91973)
V1: Removing PWL point (258.3,2.91973)
V1: Removing PWL point (259.5,2.91973)
V1: Removing PWL point (259.9,2.91973)
V1: Removing PWL point (261.3,2.91973)
V1: Removing PWL point (261.8,2.91973)
V1: Removing PWL point (275,3.00352)
V1: Removing PWL point (279.2,2.97773)
V1: Removing PWL point (279.6,2.98096)
V1: Removing PWL point (279.9,2.98418)
V1: Removing PWL point (280.5,2.97773)
V1: Removing PWL point (281.7,2.97773)
V1: Removing PWL point (282,2.98096)
V1: Removing PWL point (283.3,2.98096)
V1: Removing PWL point (283.7,2.98096)
V1: Removing PWL point (284.4,2.98096)
V1: Removing PWL point (284.8,2.98096)
V1: Removing PWL point (285.7,2.98096)
V1: Removing PWL point (286.8,2.98096)
V1: Removing PWL point (287.3,2.98096)
V1: Removing PWL point (288.4,2.98096)
V1: Removing PWL point (289.1,2.97773)
V1: Removing PWL point (289.6,2.98096)
V1: Removing PWL point (290.7,2.98096)
V1: Removing PWL point (291.3,2.98096)
V1: Removing PWL point (292.2,2.98096)
V1: Removing PWL point (292.8,2.98096)
V1: Removing PWL point (293.2,2.98096)
V1: Removing PWL point (293.9,2.98096)
V1: Removing PWL point (294.6,2.98096)
V1: Removing PWL point (295.8,2.98096)
V1: Removing PWL point (297,2.98096)
V1: Removing PWL point (297.6,2.98096)
V1: Removing PWL point (298.4,2.98096)
V1: Removing PWL point (299.2,2.97773)
V1: Removing PWL point (300.8,2.98096)
V1: Removing PWL point (302.1,2.98096)
V1: Removing PWL point (302.6,2.98096)
V1: Removing PWL point (304.8,2.98096)
V1: Removing PWL point (305.5,2.98096)
V1: Removing PWL point (306,2.98096)
V1: Removing PWL point (306.6,2.98096)
V1: Removing PWL point (307,2.98096)
V1: Removing PWL point (307.8,2.98096)
V1: Removing PWL point (308.9,2.98096)
V1: Removing PWL point (309.8,2.98096)
V1: Removing PWL point (310.8,2.98096)
V1: Removing PWL point (311.3,2.98096)
V1: Removing PWL point (311.7,2.98096)
V1: Removing PWL point (312.6,2.98096)
V1: Removing PWL point (313.4,2.97773)
V1: Removing PWL point (314.4,2.97773)
V1: Removing PWL point (314.7,2.98096)
V1: Removing PWL point (315.6,2.97773)
V1: Removing PWL point (316.3,2.97773)
V1: Removing PWL point (316.9,2.97773)
V1: Removing PWL point (317.8,2.98096)
V1: Removing PWL point (318.4,2.97773)
V1: Removing PWL point (318.7,2.98096)
V1: Removing PWL point (319.4,2.98096)
V1: Removing PWL point (320,2.98096)
V1: Removing PWL point (320.7,2.98096)
V1: Removing PWL point (321.4,2.97773)
V1: Removing PWL point (321.8,2.98096)
V1: Removing PWL point (322.6,2.97773)
V1: Removing PWL point (322.9,2.98096)
V1: Removing PWL point (323.5,2.98096)
V1: Removing PWL point (324.7,2.97773)
V1: Removing PWL point (325.3,2.98096)
V1: Removing PWL point (326,2.98096)
V1: Removing PWL point (327,2.97773)
V1: Removing PWL point (327.4,2.98096)
V1: Removing PWL point (327.8,2.98096)
V1: Removing PWL point (330,2.97773)
V1: Removing PWL point (330.9,2.98096)
V1: Removing PWL point (331.9,2.98096)
V1: Removing PWL point (332.5,2.97773)
V1: Removing PWL point (333.1,2.98096)
V1: Removing PWL point (334.2,2.98096)
V1: Removing PWL point (334.8,2.98096)
V1: Removing PWL point (336.2,2.97773)
V1: Removing PWL point (337.2,2.98096)
V1: Removing PWL point (355.7,2.98096)
V1: Removing PWL point (356.8,2.98096)
V1: Removing PWL point (357.2,2.97773)
V1: Removing PWL point (358.4,2.97773)
V1: Removing PWL point (359.4,2.98096)
V1: Removing PWL point (360.8,2.98096)
V1: Removing PWL point (361.7,2.98096)
V1: Removing PWL point (362.2,2.98096)
V1: Removing PWL point (362.7,2.98096)
V1: Removing PWL point (363.6,2.98096)
V1: Removing PWL point (364.5,2.98096)
V1: Removing PWL point (367,2.98096)
V1: Removing PWL point (368.5,2.98096)
V1: Removing PWL point (369.2,2.97773)
V1: Removing PWL point (369.7,2.98096)
V1: Removing PWL point (370.5,2.98096)
V1: Removing PWL point (371.1,2.97773)
V1: Removing PWL point (371.4,2.98096)
V1: Removing PWL point (401.8,2.98096)
V1: Removing PWL point (403.2,2.98096)
V1: Removing PWL point (403.7,2.98096)
V1: Removing PWL point (405.2,2.98418)
V1: Removing PWL point (408.9,2.9874)
V1: Removing PWL point (410.1,2.98096)
V1: Removing PWL point (413.3,2.97773)
V1: Removing PWL point (413.6,2.98096)
V1: Removing PWL point (415.1,2.98096)
V1: Removing PWL point (415.4,2.97773)
V1: Removing PWL point (415.9,2.98096)
V1: Removing PWL point (417,2.97773)
V1: Removing PWL point (417.4,2.98096)
V1: Removing PWL point (417.9,2.97773)
V1: Removing PWL point (419.2,2.97773)
V1: Removing PWL point (419.7,2.98096)
V1: Removing PWL point (420.3,2.97773)
V1: Removing PWL point (420.6,2.98096)
V1: Removing PWL point (421.6,2.97773)
V1: Removing PWL point (422.5,2.98096)
V1: Removing PWL point (423,2.97773)
V1: Removing PWL point (423.3,2.98096)
V1: Removing PWL point (424.2,2.98096)
V1: Removing PWL point (424.6,2.98096)
V1: Removing PWL point (425,2.98096)
V1: Removing PWL point (425.6,2.97773)
V1: Removing PWL point (425.9,2.98096)
V1: Removing PWL point (428.1,2.97773)
V1: Removing PWL point (428.4,2.98096)
V1: Removing PWL point (429.6,2.98096)
V1: Removing PWL point (430.4,2.97773)
V1: Removing PWL point (432.5,2.98096)
V1: Removing PWL point (433.8,2.97773)
V1: Removing PWL point (434.3,2.98096)
V1: Removing PWL point (435.6,2.98096)
V1: Removing PWL point (436.1,2.97773)
V1: Removing PWL point (441.3,2.97773)
V1: Removing PWL point (441.9,2.98096)
V1: Removing PWL point (442.5,2.97773)
V1: Removing PWL point (443,2.98096)
V1: Removing PWL point (457.3,2.7167)
V1: Removing PWL point (458.5,3.3)
V1: Removing PWL point (471.7,2.7876)
V1: Removing PWL point (474.1,2.7876)
V1: Removing PWL point (475.3,2.79082)
V1: Removing PWL point (475.7,2.79082)
V1: Removing PWL point (476.4,2.79082)
V1: Removing PWL point (477.2,2.79082)
V1: Removing PWL point (477.7,2.79082)
V1: Removing PWL point (478.3,2.79082)
V1: Removing PWL point (479,2.79082)
V1: Removing PWL point (480.7,2.79082)
V1: Removing PWL point (491,2.81338)
V1: Removing PWL point (491.5,2.81338)
V1: Removing PWL point (498.3,2.81338)
V1: Removing PWL point (502.6,2.81338)
V1: Removing PWL point (507.3,2.81338)
V1: Removing PWL point (509.5,2.81338)
V1: Removing PWL point (510.8,2.81338)
V1: Removing PWL point (525.8,2.90361)
V1: Removing PWL point (532.6,2.9165)
V1: Removing PWL point (532.9,2.91973)
V1: Removing PWL point (538,2.91973)
V1: Removing PWL point (539.4,2.91973)
V1: Removing PWL point (540.1,2.91973)
V1: Removing PWL point (540.9,2.91973)
V1: Removing PWL point (541.9,2.91973)
V1: Removing PWL point (543.5,2.9165)
V1: Removing PWL point (545.7,2.96807)
V1: Removing PWL point (550.9,2.97773)
V1: Removing PWL point (552.1,2.98096)
V1: Removing PWL point (553.9,2.97773)
V1: Removing PWL point (554.4,2.98096)
V1: Removing PWL point (554.8,2.98096)
V1: Removing PWL point (555.5,2.97773)
V1: Removing PWL point (556.6,2.97773)
V1: Removing PWL point (557.7,2.97773)
V1: Removing PWL point (558.2,2.98096)
V1: Removing PWL point (558.8,2.97773)
V1: Removing PWL point (561,2.98096)
V1: Removing PWL point (561.4,2.98096)
V1: Removing PWL point (561.8,2.98096)
V1: Removing PWL point (562.4,2.97773)
V1: Removing PWL point (563.4,2.98096)
V1: Removing PWL point (564.4,2.97773)
V1: Removing PWL point (566.4,2.98096)
Direct Newton iteration for .op point succeeded.

Date: Tue Dec 14 11:17:25 2021
Total elapsed time: 0.339 seconds.

tnom = 27
temp = 27
method = modified trap
totiter = 45639
traniter = 45636
tranpoints = 22819
accept = 22819
rejected = 0
matrix size = 3
fillins = 0
solver = Normal
Matrix Compiler1: 50 bytes object code size  0.0/0.1/[0.0]
Matrix Compiler2: 175 bytes object code size  0.1/0.1/[0.1]

