Circuit: * F:\source\gect-pump-sensor\GECT ECE Pump Pressure Sensor Module\plot\RC sim.asc

V1: Removing PWL point (0.025,2.71777)
V1: Removing PWL point (0.175,2.71777)
V1: Removing PWL point (0.375,2.71777)
V1: Removing PWL point (0.75,2.71777)
V1: Removing PWL point (1.1,2.71777)
V1: Removing PWL point (1.2,2.71777)
V1: Removing PWL point (1.35,2.71777)
V1: Removing PWL point (1.525,2.71777)
V1: Removing PWL point (1.85,2.71777)
V1: Removing PWL point (2.025,2.71777)
V1: Removing PWL point (2.2,2.71777)
V1: Removing PWL point (2.45,2.71777)
V1: Removing PWL point (2.625,2.71777)
V1: Removing PWL point (2.95,2.71777)
V1: Removing PWL point (3.225,2.71777)
V1: Removing PWL point (3.325,2.71777)
V1: Removing PWL point (3.6,2.7124)
V1: Removing PWL point (3.7,2.71777)
V1: Removing PWL point (3.8,2.71777)
V1: Removing PWL point (4.3,2.71777)
V1: Removing PWL point (4.425,2.71777)
V1: Removing PWL point (4.675,2.71777)
V1: Removing PWL point (4.875,2.71777)
V1: Removing PWL point (5.05,2.71777)
V1: Removing PWL point (5.15,2.71777)
V1: Removing PWL point (5.9,2.71777)
V1: Removing PWL point (6.225,2.71777)
V1: Removing PWL point (6.4,2.71777)
V1: Removing PWL point (6.65,2.71777)
V1: Removing PWL point (7.025,2.71777)
V1: Removing PWL point (7.25,2.71777)
V1: Removing PWL point (7.4,2.71777)
V1: Removing PWL point (7.825,2.71777)
V1: Removing PWL point (8.025,2.71777)
V1: Removing PWL point (8.25,2.71777)
V1: Removing PWL point (8.75,2.71777)
V1: Removing PWL point (9.075,2.71777)
V1: Removing PWL point (9.25,2.71777)
V1: Removing PWL point (9.475,2.71777)
V1: Removing PWL point (9.6,2.71777)
V1: Removing PWL point (9.75,2.71777)
V1: Removing PWL point (10.025,2.71777)
V1: Removing PWL point (10.25,2.71777)
V1: Removing PWL point (10.55,2.71777)
V1: Removing PWL point (10.825,2.7124)
V1: Removing PWL point (10.925,2.71777)
V1: Removing PWL point (11.025,2.71777)
V1: Removing PWL point (11.2,2.71777)
V1: Removing PWL point (11.3,2.71777)
V1: Removing PWL point (11.45,2.71777)
V1: Removing PWL point (11.675,2.71777)
V1: Removing PWL point (11.775,2.71777)
V1: Removing PWL point (11.95,2.71777)
V1: Removing PWL point (12.275,2.71777)
V1: Removing PWL point (12.625,2.71777)
V1: Removing PWL point (12.725,2.71777)
V1: Removing PWL point (12.875,2.71777)
V1: Removing PWL point (13.125,2.71777)
V1: Removing PWL point (13.275,2.71777)
V1: Removing PWL point (13.45,2.71777)
V1: Removing PWL point (18.95,4.83935)
V1: Removing PWL point (19.25,4.83935)
V1: Removing PWL point (28.4,2.68017)
V1: Removing PWL point (29.325,2.69092)
V1: Removing PWL point (29.475,2.72851)
V1: Removing PWL point (29.625,2.69092)
V1: Removing PWL point (30.25,2.69629)
V1: Removing PWL point (30.45,2.72314)
V1: Removing PWL point (30.7,2.72314)
V1: Removing PWL point (31.325,2.72314)
V1: Removing PWL point (31.475,2.69629)
V1: Removing PWL point (31.65,2.72314)
V1: Removing PWL point (31.9,2.72314)
V1: Removing PWL point (32.15,2.7124)
V1: Removing PWL point (32.525,2.71777)
V1: Removing PWL point (32.65,2.71777)
V1: Removing PWL point (32.725,2.7124)
V1: Removing PWL point (32.875,2.72314)
V1: Removing PWL point (33.025,2.7124)
V1: Removing PWL point (33.175,2.71777)
V1: Removing PWL point (33.325,2.7124)
V1: Removing PWL point (33.65,2.7124)
V1: Removing PWL point (33.75,2.71777)
V1: Removing PWL point (33.925,2.7124)
V1: Removing PWL point (34.05,2.71777)
V1: Removing PWL point (34.15,2.71777)
V1: Removing PWL point (34.25,2.7124)
V1: Removing PWL point (34.375,2.71777)
V1: Removing PWL point (34.625,2.71777)
V1: Removing PWL point (34.875,2.7124)
V1: Removing PWL point (35.6,2.71777)
V1: Removing PWL point (35.775,2.7124)
V1: Removing PWL point (35.95,2.71777)
V1: Removing PWL point (36.2,2.71777)
V1: Removing PWL point (36.425,2.71777)
V1: Removing PWL point (36.6,2.71777)
V1: Removing PWL point (36.7,2.7124)
V1: Removing PWL point (37.55,2.71777)
V1: Removing PWL point (37.775,2.71777)
V1: Removing PWL point (38.175,2.7124)
V1: Removing PWL point (38.4,2.66406)
V1: Removing PWL point (39.225,2.62646)
V1: Removing PWL point (41.325,2.56738)
V1: Removing PWL point (42.075,2.51904)
V1: Removing PWL point (44.65,2.41162)
V1: Removing PWL point (46.7,2.40088)
V1: Removing PWL point (46.85,2.40088)
V1: Removing PWL point (51.45,2.90039)
V1: Removing PWL point (52.5,2.72314)
V1: Removing PWL point (53.075,2.72314)
V1: Removing PWL point (53.425,2.72314)
V1: Removing PWL point (53.55,2.7124)
V1: Removing PWL point (53.9,2.7124)
V1: Removing PWL point (54.175,2.68017)
V1: Removing PWL point (54.65,2.73389)
V1: Removing PWL point (54.825,2.7124)
V1: Removing PWL point (55.1,2.69092)
V1: Removing PWL point (55.425,2.71777)
V1: Removing PWL point (55.55,2.72851)
V1: Removing PWL point (55.975,2.69629)
V1: Removing PWL point (56.075,2.69629)
V1: Removing PWL point (56.2,2.71777)
V1: Removing PWL point (56.375,2.71777)
V1: Removing PWL point (56.45,2.72314)
V1: Removing PWL point (56.6,2.71777)
V1: Removing PWL point (56.675,2.7124)
V1: Removing PWL point (56.925,2.69629)
V1: Removing PWL point (57.05,2.7124)
V1: Removing PWL point (57.125,2.71777)
V1: Removing PWL point (57.325,2.71777)
V1: Removing PWL point (57.575,2.7124)
V1: Removing PWL point (61.375,4.83935)
V1: Removing PWL point (61.65,4.83935)
V1: Removing PWL point (69.7,2.78223)
V1: Removing PWL point (70.8,2.68017)
V1: Removing PWL point (71.4,2.69092)
V1: Removing PWL point (71.725,2.69092)
V1: Removing PWL point (72.475,2.72851)
V1: Removing PWL point (72.625,2.69629)
V1: Removing PWL point (72.775,2.72314)
V1: Removing PWL point (73.1,2.72314)
V1: Removing PWL point (73.25,2.69629)
V1: Removing PWL point (73.375,2.72314)
V1: Removing PWL point (73.75,2.72314)
V1: Removing PWL point (74.15,2.7124)
V1: Removing PWL point (74.325,2.72314)
V1: Removing PWL point (74.6,2.71777)
V1: Removing PWL point (74.8,2.7124)
V1: Removing PWL point (75.075,2.7124)
V1: Removing PWL point (75.175,2.71777)
V1: Removing PWL point (75.275,2.71777)
V1: Removing PWL point (75.4,2.7124)
V1: Removing PWL point (75.525,2.71777)
V1: Removing PWL point (75.7,2.7124)
V1: Removing PWL point (75.825,2.71777)
V1: Removing PWL point (76.1,2.71777)
V1: Removing PWL point (76.35,2.7124)
V1: Removing PWL point (76.5,2.71777)
V1: Removing PWL point (76.625,2.7124)
V1: Removing PWL point (76.775,2.71777)
V1: Removing PWL point (77.025,2.71777)
V1: Removing PWL point (77.125,2.71777)
V1: Removing PWL point (77.225,2.7124)
V1: Removing PWL point (77.375,2.71777)
V1: Removing PWL point (77.55,2.7124)
V1: Removing PWL point (77.65,2.71777)
V1: Removing PWL point (78,2.71777)
V1: Removing PWL point (78.475,2.7124)
V1: Removing PWL point (78.575,2.71777)
V1: Removing PWL point (78.875,2.71777)
V1: Removing PWL point (79.075,2.7124)
V1: Removing PWL point (79.175,2.71777)
V1: Removing PWL point (79.6,2.71777)
V1: Removing PWL point (79.75,2.71777)
V1: Removing PWL point (80,2.71777)
V1: Removing PWL point (80.175,2.71777)
V1: Removing PWL point (80.425,2.71777)
V1: Removing PWL point (80.8,2.71777)
V1: Removing PWL point (81.025,2.71777)
V1: Removing PWL point (81.275,2.71777)
V1: Removing PWL point (81.95,2.71777)
V1: Removing PWL point (82.35,2.71777)
V1: Removing PWL point (82.45,2.71777)
V1: Removing PWL point (82.575,2.7124)
V1: Removing PWL point (82.65,2.71777)
V1: Removing PWL point (83,2.71777)
V1: Removing PWL point (83.125,2.71777)
V1: Removing PWL point (83.225,2.71777)
V1: Removing PWL point (83.375,2.71777)
V1: Removing PWL point (83.475,2.71777)
V1: Removing PWL point (83.9,2.71777)
V1: Removing PWL point (84.325,2.71777)
V1: Removing PWL point (84.525,2.71777)
V1: Removing PWL point (84.7,2.71777)
V1: Removing PWL point (84.8,2.71777)
V1: Removing PWL point (84.9,2.71777)
V1: Removing PWL point (85.075,2.71777)
V1: Removing PWL point (85.225,2.71777)
V1: Removing PWL point (85.775,2.71777)
V1: Removing PWL point (86,2.71777)
V1: Removing PWL point (86.2,2.71777)
V1: Removing PWL point (86.35,2.71777)
V1: Removing PWL point (86.9,2.71777)
V1: Removing PWL point (87.15,2.71777)
V1: Removing PWL point (87.3,2.71777)
V1: Removing PWL point (87.625,2.71777)
V1: Removing PWL point (88.55,2.71777)
V1: Removing PWL point (88.675,2.71777)
V1: Removing PWL point (88.975,2.71777)
V1: Removing PWL point (89.3,2.71777)
V1: Removing PWL point (89.575,2.71777)
V1: Removing PWL point (89.825,2.71777)
V1: Removing PWL point (90.35,2.71777)
V1: Removing PWL point (90.575,2.71777)
V1: Removing PWL point (90.975,2.71777)
V1: Removing PWL point (91.2,2.71777)
V1: Removing PWL point (91.375,2.71777)
V1: Removing PWL point (91.775,2.71777)
V1: Removing PWL point (92,2.71777)
V1: Removing PWL point (92.175,2.71777)
V1: Removing PWL point (92.4,2.71777)
V1: Removing PWL point (92.75,2.71777)
V1: Removing PWL point (92.95,2.71777)
V1: Removing PWL point (93.275,2.71777)
V1: Removing PWL point (93.575,2.71777)
V1: Removing PWL point (94.125,2.71777)
V1: Removing PWL point (94.6,2.71777)
V1: Removing PWL point (94.775,2.71777)
V1: Removing PWL point (95,2.71777)
V1: Removing PWL point (95.1,2.71777)
V1: Removing PWL point (95.3,2.71777)
V1: Removing PWL point (95.775,2.71777)
V1: Removing PWL point (95.9,2.71777)
V1: Removing PWL point (96.375,2.71777)
V1: Removing PWL point (96.65,2.71777)
V1: Removing PWL point (96.775,2.71777)
V1: Removing PWL point (97.075,2.71777)
V1: Removing PWL point (97.325,2.71777)
V1: Removing PWL point (97.725,2.71777)
V1: Removing PWL point (97.95,2.71777)
V1: Removing PWL point (98.125,2.71777)
V1: Removing PWL point (98.275,2.71777)
V1: Removing PWL point (98.55,2.71777)
V1: Removing PWL point (98.875,2.71777)
V1: Removing PWL point (99.3,2.29883)
V1: Removing PWL point (100.45,2.68017)
V1: Removing PWL point (100.55,2.69092)
V1: Removing PWL point (100.65,2.69092)
V1: Removing PWL point (100.9,2.65869)
V1: Removing PWL point (101.4,2.68017)
V1: Removing PWL point (101.825,2.65869)
V1: Removing PWL point (102.075,2.65869)
V1: Removing PWL point (102.4,2.66943)
V1: Removing PWL point (103.025,2.66943)
V1: Removing PWL point (110.45,2.6748)
V1: Removing PWL point (111.825,2.72851)
V1: Removing PWL point (112.15,2.72851)
V1: Removing PWL point (112.3,2.69629)
V1: Removing PWL point (112.725,2.72314)
V1: Removing PWL point (112.925,2.69092)
V1: Removing PWL point (113.225,2.69629)
V1: Removing PWL point (113.35,2.72314)
V1: Removing PWL point (113.525,2.7124)
V1: Removing PWL point (113.7,2.72314)
V1: Removing PWL point (113.825,2.69629)
V1: Removing PWL point (114,2.72314)
V1: Removing PWL point (114.325,2.72314)
V1: Removing PWL point (114.65,2.71777)
V1: Removing PWL point (114.9,2.71777)
V1: Removing PWL point (115.05,2.7124)
V1: Removing PWL point (115.375,2.7124)
V1: Removing PWL point (115.5,2.71777)
V1: Removing PWL point (115.65,2.7124)
V1: Removing PWL point (115.8,2.71777)
V1: Removing PWL point (115.925,2.71777)
V1: Removing PWL point (116,2.7124)
V1: Removing PWL point (116.2,2.71777)
V1: Removing PWL point (116.3,2.7124)
V1: Removing PWL point (116.4,2.71777)
V1: Removing PWL point (116.575,2.7124)
V1: Removing PWL point (117,2.71777)
V1: Removing PWL point (117.1,2.71777)
V1: Removing PWL point (117.175,2.7124)
V1: Removing PWL point (117.35,2.71777)
V1: Removing PWL point (117.8,2.7124)
V1: Removing PWL point (117.95,2.71777)
V1: Removing PWL point (118.25,2.71777)
V1: Removing PWL point (118.625,2.71777)
V1: Removing PWL point (118.85,2.71777)
V1: Removing PWL point (119.125,2.7124)
V1: Removing PWL point (119.225,2.7124)
V1: Removing PWL point (119.425,2.71777)
V1: Removing PWL point (119.55,2.71777)
V1: Removing PWL point (119.725,2.71777)
V1: Removing PWL point (120.05,2.7124)
V1: Removing PWL point (120.3,2.71777)
V1: Removing PWL point (120.475,2.71777)
V1: Removing PWL point (120.775,2.71777)
V1: Removing PWL point (121.075,2.7124)
V1: Removing PWL point (121.275,2.71777)
V1: Removing PWL point (121.525,2.71777)
V1: Removing PWL point (121.625,2.71777)
V1: Removing PWL point (121.95,2.71777)
V1: Removing PWL point (122.05,2.71777)
V1: Removing PWL point (122.35,2.71777)
V1: Removing PWL point (122.5,2.7124)
V1: Removing PWL point (122.575,2.71777)
V1: Removing PWL point (122.775,2.71777)
V1: Removing PWL point (122.9,2.71777)
V1: Removing PWL point (123.05,2.71777)
V1: Removing PWL point (123.375,2.71777)
V1: Removing PWL point (123.5,2.71777)
V1: Removing PWL point (123.775,2.71777)
V1: Removing PWL point (124.05,2.71777)
V1: Removing PWL point (124.375,2.71777)
V1: Removing PWL point (124.975,2.71777)
V1: Removing PWL point (125.075,2.71777)
V1: Removing PWL point (125.3,2.71777)
V1: Removing PWL point (125.4,2.71777)
V1: Removing PWL point (125.6,2.71777)
V1: Removing PWL point (125.75,2.71777)
V1: Removing PWL point (125.85,2.71777)
V1: Removing PWL point (125.95,2.71777)
V1: Removing PWL point (126.325,2.71777)
V1: Removing PWL point (126.5,2.71777)
V1: Removing PWL point (126.8,2.71777)
V1: Removing PWL point (126.9,2.71777)
V1: Removing PWL point (127.1,2.71777)
V1: Removing PWL point (127.275,2.71777)
V1: Removing PWL point (127.4,2.71777)
V1: Removing PWL point (127.575,2.71777)
V1: Removing PWL point (127.675,2.71777)
V1: Removing PWL point (127.85,2.71777)
V1: Removing PWL point (128.15,2.71777)
V1: Removing PWL point (128.4,2.71777)
V1: Removing PWL point (128.65,2.71777)
V1: Removing PWL point (128.775,2.71777)
V1: Removing PWL point (128.925,2.71777)
V1: Removing PWL point (129.325,2.71777)
V1: Removing PWL point (129.425,2.71777)
V1: Removing PWL point (130.625,2.49756)
V1: Removing PWL point (133.15,2.40088)
V1: Removing PWL point (134.7,4.83935)
V1: Removing PWL point (135.025,4.83935)
V1: Removing PWL point (144.15,2.68017)
V1: Removing PWL point (144.625,2.73389)
V1: Removing PWL point (145.075,2.69092)
V1: Removing PWL point (145.225,2.72851)
V1: Removing PWL point (145.825,2.72851)
V1: Removing PWL point (146.125,2.72314)
V1: Removing PWL point (146.45,2.72314)
V1: Removing PWL point (146.65,2.7124)
V1: Removing PWL point (146.725,2.72314)
V1: Removing PWL point (147.075,2.72314)
V1: Removing PWL point (147.4,2.72314)
V1: Removing PWL point (147.5,2.7124)
V1: Removing PWL point (147.675,2.72314)
V1: Removing PWL point (147.825,2.7124)
V1: Removing PWL point (147.95,2.71777)
Direct Newton iteration failed to find .op point.  (Use ".option noopiter" to skip.)
Starting Gmin stepping
Gmin = 10
Gmin = 1.07374
Gmin = 0.115292
Gmin = 0.0123794
Gmin = 0.00132923
Gmin = 0.000142725
Gmin = 1.5325e-005
Gmin = 1.6455e-006
Gmin = 1.76685e-007
Gmin = 1.89714e-008
vernier = 0.5
vernier = 0.666667
Gmin = 5.77523e-009
vernier = 0.888888
Gmin = 9.79681e-010
vernier = 1
Gmin = 1.07583e-010
Gmin = 1.15517e-011
Gmin = 1.24035e-012
Gmin = 1.33182e-013
Gmin = 0
Gmin stepping succeeded in finding the operating point.


Date: Wed Dec 15 17:05:44 2021
Total elapsed time: 1.477 seconds.

tnom = 27
temp = 27
method = modified trap
totiter = 63819
traniter = 63174
tranpoints = 25983
accept = 25014
rejected = 969
matrix size = 38
fillins = 20
solver = Normal
Thread vector: 20.2/15.0[2] 7.2/5.6[2] 3.4/3.0[2] 0.5/1.2[1]  2592/500
Matrix Compiler1: 3.17 KB object code size  1.9/1.2/[0.7]
Matrix Compiler2: 3.50 KB object code size  1.0/1.7/[0.6]

